30

C          2.45139        0.70543       -0.00623
C          3.67677        1.39102        0.04539
C          4.88499        0.69299        0.07685
C          4.88467       -0.69808        0.04779
C          3.67578       -1.39335       -0.00515
C          2.45134       -0.70550       -0.02493
C          1.22618       -1.39160       -0.05136
C          0.00082       -0.70409       -0.04763
C          0.00019        0.70496       -0.04794
C         -1.22591        1.39139       -0.05086
C         -2.45130        0.70342       -0.02570
C         -3.67792        1.38855       -0.00977
C         -4.88581        0.69052        0.04276
C         -4.88263       -0.70049        0.07614
C         -3.67277       -1.39559        0.04708
C         -2.44911       -0.70659       -0.00549
C         -1.22373       -1.39239       -0.02975
C          1.22606        1.39225       -0.03064
H          3.69766        2.47823        0.06948
H          5.82496        1.23631        0.12533
H          5.82434       -1.24373        0.07050
H          3.69581       -2.48071       -0.02406
H          1.22649       -2.48016       -0.06056
H         -1.22773        2.47981       -0.06023
H         -3.70080        2.47605       -0.03181
H         -5.82645        1.23373        0.06154
H         -5.82106       -1.24631        0.12561
H         -3.69081       -2.48274        0.07429
H         -1.22297       -2.48112       -0.02098
H          1.22681        2.48074       -0.02188
