24

C         -0.71986       -0.39545       -0.00563
C          0.72062       -0.39668       -0.00018
C          1.51585       -1.57036        0.02563
C          2.91301       -1.52571        0.03436
C          3.56530       -0.30291        0.00804
C          2.81940        0.87258       -0.01575
C          1.41486        0.84162       -0.01042
C          0.69843        2.04124       -0.00779
C         -0.69383        2.04221        0.01802
C         -1.41154        0.84307        0.02060
C         -2.81633        0.87636        0.04765
C         -3.56416       -0.29791        0.02907
C         -2.91425       -1.52113       -0.02269
C         -1.51718       -1.56780       -0.03743
H          1.05497       -2.55346        0.05218
H          3.48460       -2.44962        0.06424
H          4.65082       -0.26113        0.01144
H          3.34837        1.82337       -0.03251
H          1.21987        2.99642       -0.01607
H         -1.21383        2.99767        0.03149
H         -3.34331        1.82775        0.08306
H         -4.64947       -0.25479        0.05020
H         -3.48770       -2.44394       -0.05068
H         -1.05826       -2.55098       -0.08289
