24

C          1.22598       -0.70526       -0.00225
C          2.45083       -1.39265       -0.00822
C          3.66029       -0.69637       -0.00378
C          3.66083        0.69495        0.00297
C          2.45185        1.39255        0.00162
C          1.22619        0.70634       -0.00000
C          0.00108        1.39380        0.00159
C         -1.22333        0.70570        0.00150
C         -1.22320       -0.70559        0.00270
C         -2.44795       -1.39337        0.00336
C         -3.65746       -0.69725       -0.00031
C         -3.65830        0.69393       -0.00196
C         -2.44954        1.39180        0.00053
C          0.00152       -1.39301        0.00142
H          2.47061       -2.48007       -0.01610
H          4.60040       -1.24158       -0.00544
H          4.60158        1.23906        0.00876
H          2.47297        2.48000        0.00274
H          0.00099        2.48213        0.00218
H         -2.46756       -2.48076        0.00488
H         -4.59754       -1.24267       -0.00259
H         -4.59931        1.23806       -0.00555
H         -2.47076        2.47908        0.00004
H          0.00187       -2.48134        0.00387
