26

C          1.17311        0.05955        0.03847
C          2.51096        0.09690        0.05702
C          3.26413        1.20365        0.60540
C          4.60654        1.24290        0.62672
C          5.35877        2.35457        1.17766
C          6.70143        2.40028        1.20043
C          7.45119        3.51405        1.75207
C          8.79411        3.55931        1.77596
C          9.54671        4.67032        2.32644
C         10.88932        4.70882        2.34881
C         11.64318        5.81535        2.89720
C         12.98049        5.85132        2.91693
H          0.65058       -0.79383       -0.38421
H          0.56317        0.86435        0.43723
H          3.06529       -0.74233       -0.35853
H          2.68859        2.03188        1.01436
H          5.17879        0.41275        0.21679
H          4.78123        3.18120        1.58690
H          7.27855        1.57367        0.79069
H          6.87417        4.34154        2.16036
H          9.37207        2.73256        1.36804
H          8.97469        5.50209        2.73557
H         11.46420        3.87974        1.94123
H         11.08973        6.65557        3.31189
H         13.59064        5.04594        2.51946
H         13.50474        6.70453        3.33953
